lig_CHEMBL1084143
                    3D
 Schrodinger Suite 2022-3.
 74 77  0  0  1  0            999 V2000
   34.2890    7.0549   16.2089 H   0  0  0  0  0  0
   33.2984    7.3883   15.9243 C   0  0  0  0  0  0
   32.1748    6.9864   16.6702 C   0  0  0  0  0  0
   32.3011    6.3366   17.5241 H   0  0  0  0  0  0
   30.8852    7.4111   16.2998 C   0  0  0  0  0  0
   30.0283    7.0927   16.8776 H   0  0  0  0  0  0
   30.7181    8.2597   15.1890 C   0  0  0  0  0  0
   29.3371    8.7553   14.7970 C   0  0  2  0  0  0
   28.6147    8.3142   15.4846 H   0  0  0  0  0  0
   28.9954    8.2646   13.4668 N   0  0  0  0  0  0
   29.1817    7.2859   13.2856 H   0  0  0  0  0  0
   27.9850    8.9027   12.7335 C   0  0  0  0  0  0
   27.5838    8.3471   11.5048 C   0  0  0  0  0  0
   28.0245    7.4273   11.1494 H   0  0  0  0  0  0
   26.6054    8.9883   10.7188 C   0  0  0  0  0  0
   26.3155    8.5593    9.7706 H   0  0  0  0  0  0
   26.0246   10.2002   11.1471 C   0  0  0  0  0  0
   25.0447   10.9358   10.2428 C   0  0  0  0  0  0
   24.5209   10.1894    9.6425 H   0  0  0  0  0  0
   25.8202   11.8722    9.3174 C   0  0  0  0  0  0
   26.5217   11.3047    8.7190 H   0  0  0  0  0  0
   26.3842   12.5889    9.9073 H   0  0  0  0  0  0
   25.1858   12.4509    8.6482 H   0  0  0  0  0  0
   23.9982   11.7308   11.0279 C   0  0  0  0  0  0
   23.5851   11.1146   11.8148 H   0  0  0  0  0  0
   23.1856   12.0850   10.3954 H   0  0  0  0  0  0
   24.4472   12.5883   11.5172 H   0  0  0  0  0  0
   26.4188   10.7448   12.3854 C   0  0  0  0  0  0
   26.0129   11.6846   12.7263 H   0  0  0  0  0  0
   27.3915   10.1074   13.1771 C   0  0  0  0  0  0
   27.8193   10.7625   14.4739 C   0  0  1  0  0  0
   27.8404   11.8400   14.3009 H   0  0  0  0  0  0
   26.8751   10.4887   15.5085 O   0  0  0  0  0  0
   27.1349   11.2013   16.7104 C   0  0  1  0  0  0
   27.2230   12.2583   16.4512 H   0  0  0  0  0  0
   25.9065   11.0792   17.6423 C   0  0  0  0  0  0
   25.6969   12.0572   18.0783 H   0  0  0  0  0  0
   25.0158   10.7989   17.0789 H   0  0  0  0  0  0
   26.1209   10.1352   18.7397 N   0  0  2  0  0  0
   26.5354    9.2575   18.4329 H   0  0  0  0  0  0
   24.8976    9.9019   19.9272 S   0  0  0  0  0  0
   25.5502    9.2695   21.0852 O   0  0  0  0  0  0
   24.1680   11.1677   20.0755 O   0  0  0  0  0  0
   23.7931    8.6664   19.1292 C   0  0  0  0  0  0
   22.8511    8.6615   19.6775 H   0  0  0  0  0  0
   23.5836    8.9936   18.1103 H   0  0  0  0  0  0
   24.4548    7.2835   19.1769 C   0  0  0  0  0  0
   25.4377    7.3882   18.7187 H   0  0  0  0  0  0
   24.6483    7.0012   20.2152 H   0  0  0  0  0  0
   23.7014    6.1590   18.4469 C   0  0  0  0  0  0
   22.8764    6.5536   17.8506 H   0  0  0  0  0  0
   24.3926    5.7064   17.7347 H   0  0  0  0  0  0
   23.2128    5.1113   19.3791 N   0  3  0  0  0  0
   21.9566    5.5037   20.0506 C   0  0  0  0  0  0
   21.1631    5.6873   19.3242 H   0  0  0  0  0  0
   22.0949    6.4065   20.6434 H   0  0  0  0  0  0
   21.6157    4.7174   20.7189 H   0  0  0  0  0  0
   23.1062    3.7878   18.7314 C   0  0  0  0  0  0
   22.3851    3.7976   17.9183 H   0  0  0  0  0  0
   22.7907    3.0286   19.4476 H   0  0  0  0  0  0
   24.0648    3.4746   18.3206 H   0  0  0  0  0  0
   28.4845   10.7217   17.2882 C   0  0  0  0  0  0
   28.7225   11.2681   18.2016 H   0  0  0  0  0  0
   28.4314    9.6659   17.5566 H   0  0  0  0  0  0
   29.6040   10.9126   16.2590 C   0  0  0  0  0  0
   29.7788   11.9821   16.1283 H   0  0  0  0  0  0
   30.5385   10.5037   16.6411 H   0  0  0  0  0  0
   29.2265   10.2992   14.8915 C   0  0  1  0  0  0
   29.9262   10.7113   14.1625 H   0  0  0  0  0  0
   31.8450    8.6445   14.4306 C   0  0  0  0  0  0
   31.7244    9.2812   13.5660 H   0  0  0  0  0  0
   33.1304    8.2083   14.7950 C   0  0  0  0  0  0
   33.9836    8.5120   14.2094 H   0  0  0  0  0  0
   23.9189    4.9883   20.1044 H   0  0  0  0  0  0
  1  2  1  0  0  0
  2 72  1  0  0  0
  2  3  2  0  0  0
  3  4  1  0  0  0
  3  5  1  0  0  0
  5  6  1  0  0  0
  5  7  2  0  0  0
  7  8  1  0  0  0
  7 70  1  0  0  0
  8 68  1  0  0  0
  8  9  1  0  0  0
  8 10  1  0  0  0
 10 11  1  0  0  0
 10 12  1  0  0  0
 12 30  1  0  0  0
 12 13  2  0  0  0
 13 14  1  0  0  0
 13 15  1  0  0  0
 15 16  1  0  0  0
 15 17  2  0  0  0
 17 18  1  0  0  0
 17 28  1  0  0  0
 18 19  1  0  0  0
 18 20  1  0  0  0
 18 24  1  0  0  0
 20 21  1  0  0  0
 20 22  1  0  0  0
 20 23  1  0  0  0
 24 25  1  0  0  0
 24 26  1  0  0  0
 24 27  1  0  0  0
 28 29  1  0  0  0
 28 30  2  0  0  0
 30 31  1  0  0  0
 31 68  1  0  0  0
 31 32  1  0  0  0
 31 33  1  0  0  0
 33 34  1  0  0  0
 34 35  1  0  0  0
 34 36  1  0  0  0
 34 62  1  0  0  0
 36 37  1  0  0  0
 36 38  1  0  0  0
 36 39  1  0  0  0
 39 40  1  0  0  0
 39 41  1  0  0  0
 41 42  2  0  0  0
 41 43  2  0  0  0
 41 44  1  0  0  0
 44 45  1  0  0  0
 44 46  1  0  0  0
 44 47  1  0  0  0
 47 48  1  0  0  0
 47 49  1  0  0  0
 47 50  1  0  0  0
 50 51  1  0  0  0
 50 52  1  0  0  0
 50 53  1  0  0  0
 53 54  1  0  0  0
 53 58  1  0  0  0
 53 74  1  0  0  0
 54 55  1  0  0  0
 54 56  1  0  0  0
 54 57  1  0  0  0
 58 59  1  0  0  0
 58 60  1  0  0  0
 58 61  1  0  0  0
 62 63  1  0  0  0
 62 64  1  0  0  0
 62 65  1  0  0  0
 65 66  1  0  0  0
 65 67  1  0  0  0
 65 68  1  0  0  0
 68 69  1  0  0  0
 70 71  1  0  0  0
 70 72  2  0  0  0
 72 73  1  0  0  0
M  CHG  1  53   1
M  END
> <s_m_source_file>
ligprep_eg5.smi

> <i_m_source_file_index>
11

> <i_lp_mmshare_version>
53161

> <i_f3d_flags>
0

> <s_epik_input>
W2NIXTFbY0hdW2NIXVtjSF1bY0hdYzFbQ0BIXShbTkhdMilbQ0BASF0oW0NASF0zYyhjMjQpW2NIXWMoW2NIXVtjSF00KVtDSF0oW0NIM10pW0NIM10pW0NIMl1bQ0gyXVtDQEBIXShPMylbQ0gyXVtOSF1TKD1PKSg9TylbQ0gyXVtDSDJdW0NIMl1OKFtDSDNdKVtDSDNd

> <s_epik_cmdline>
J2VwaWtfcHl0aG9uJywgJy1waHQnLCAnMC4wJywgJy1waCcsICc3LjQnLCAnLXRuJywgJzgnLCAnLW1hJywgJzUwMCcsICctaW1hZScsICc8aW5maWxlLm1hZT4nLCAnLW9tYWUnLCAnPG91dGZpbGUubWFlPic=

> <r_lp_tautomer_probability>
1

> <r_epik_Ionization_Penalty>
  0.0133

> <r_epik_Ionization_Penalty_Charging>
  0.0127

> <r_epik_Ionization_Penalty_Neutral>
  0.0006

> <r_epik_State_Penalty>
 -0.0000

> <r_epik_Charging_Adjusted_Penalty>
0.0127395

> <i_epik_Tot_Q>
1

> <i_epik_Tot_abs_Q>
1

> <s_lp_Force_Field>
S-OPLS

> <r_lp_Energy>
44.0586

> <b_lp_Chiralities_Consistent>
1

> <s_lp_Variant>
lig_CHEMBL1084143-1

> <s_i_glide_gridfile>
glide-grid_EG5-3L9H

> <i_i_glide_lignum>
11

> <i_i_glide_rotatable_bonds>
9

> <r_i_docking_score>
-9.17707146718083

> <r_i_glide_ligand_efficiency>
-0.269913866681789

> <r_i_glide_ligand_efficiency_sa>
-0.874416146802926

> <r_i_glide_ligand_efficiency_ln>
-2.02747249523591

> <r_i_glide_gscore>
-9.17707146718083

> <r_i_glide_lipo>
-5.19710641060366

> <r_i_glide_hbond>
-0.35763212329897

> <r_i_glide_metal>
-0

> <r_i_glide_rewards>
-0.276346688977199

> <r_i_glide_evdw>
-52.4617805480957

> <r_i_glide_ecoul>
-9.07236576080322

> <r_i_glide_erotb>
0.686425891697789

> <r_i_glide_esite>
-0.0484682444735191

> <r_i_glide_emodel>
-86.3049340602711

> <r_i_glide_energy>
-61.5341463088989

> <r_i_glide_einternal>
10.7834968566895

> <i_i_glide_confnum>
289

> <i_i_glide_posenum>
91

> <r_i_glide_eff_state_penalty>
-0

> <r_i_glide_rmsd>
0.0671303869202424

> <s_glide_core_constrain_type>
snapped_core_restrain

$$$$
lig_CHEMBL1084678
                    3D
 Schrodinger Suite 2022-3.
 65 68  0  0  1  0            999 V2000
   34.2901    7.0565   16.2136 H   0  0  0  0  0  0
   33.2995    7.3873   15.9295 C   0  0  0  0  0  0
   32.1778    6.9787   16.6753 C   0  0  0  0  0  0
   32.3050    6.3301   17.5322 H   0  0  0  0  0  0
   30.8866    7.4067   16.3086 C   0  0  0  0  0  0
   30.0301    7.0823   16.8801 H   0  0  0  0  0  0
   30.7145    8.2568   15.1962 C   0  0  0  0  0  0
   29.3293    8.7443   14.8041 C   0  0  2  0  0  0
   28.6081    8.2941   15.4920 H   0  0  0  0  0  0
   28.9931    8.2645   13.4713 N   0  0  0  0  0  0
   29.1869    7.2880   13.2845 H   0  0  0  0  0  0
   27.9692    8.8970   12.7508 C   0  0  0  0  0  0
   27.5882    8.3519   11.5097 C   0  0  0  0  0  0
   28.0549    7.4502   11.1422 H   0  0  0  0  0  0
   26.6126    8.9887   10.7240 C   0  0  0  0  0  0
   26.3484    8.5772    9.7601 H   0  0  0  0  0  0
   25.9978   10.1764   11.1739 C   0  0  0  0  0  0
   25.0086   10.9022   10.2778 C   0  0  0  0  0  0
   24.3521   10.0288    9.5189 F   0  0  0  0  0  0
   24.1311   11.6175   10.9771 F   0  0  0  0  0  0
   25.6753   11.7419    9.4872 F   0  0  0  0  0  0
   26.3591   10.7125   12.4272 C   0  0  0  0  0  0
   25.9084   11.6313   12.7667 H   0  0  0  0  0  0
   27.3466   10.0831   13.2149 C   0  0  0  0  0  0
   27.7805   10.7322   14.5166 C   0  0  1  0  0  0
   27.7884   11.8109   14.3449 H   0  0  0  0  0  0
   26.8584   10.4471   15.5733 O   0  0  0  0  0  0
   27.1415   11.1474   16.7856 C   0  0  1  0  0  0
   27.2231   12.2033   16.5214 H   0  0  0  0  0  0
   25.9199   11.0574   17.7473 C   0  0  0  0  0  0
   25.7172   12.0397   18.1713 H   0  0  0  0  0  0
   25.0336   10.8167   17.1554 H   0  0  0  0  0  0
   26.0557   10.0953   18.8632 N   0  0  1  0  0  0
   26.6812   10.6336   20.0756 C   0  0  0  0  0  0
   27.4336   11.3930   19.8512 H   0  0  0  0  0  0
   27.1585    9.8367   20.6515 H   0  0  0  0  0  0
   25.9231   11.1026   20.7053 H   0  0  0  0  0  0
   24.7771    8.9769   19.1435 S   0  0  0  0  0  0
   24.9663    8.4020   20.4811 O   0  0  0  0  0  0
   23.4957    9.6156   18.7933 O   0  0  0  0  0  0
   25.1849    7.7114   17.9133 C   0  0  0  0  0  0
   25.2672    8.2114   16.9528 H   0  0  0  0  0  0
   26.1848    7.3883   18.1628 H   0  0  0  0  0  0
   24.1255    6.5997   17.8066 C   0  0  0  0  0  0
   23.1743    7.0772   17.5655 H   0  0  0  0  0  0
   24.3850    5.9897   16.9491 H   0  0  0  0  0  0
   23.9442    5.6681   19.0135 C   0  0  0  0  0  0
   24.7849    4.9897   19.1183 H   0  0  0  0  0  0
   23.8338    6.2194   19.9454 H   0  0  0  0  0  0
   22.7559    4.8180   18.8438 N   0  3  0  0  0  0
   22.6304    4.2164   19.6444 H   0  0  0  0  0  0
   22.8369    4.2362   18.0220 H   0  0  0  0  0  0
   28.5122   10.6850   17.3186 C   0  0  0  0  0  0
   28.7961   11.2429   18.2115 H   0  0  0  0  0  0
   28.4729    9.6284   17.5935 H   0  0  0  0  0  0
   29.6049   10.8986   16.2626 C   0  0  0  0  0  0
   29.7590   11.9716   16.1323 H   0  0  0  0  0  0
   30.5547   10.5046   16.6223 H   0  0  0  0  0  0
   29.2027   10.2853   14.9065 C   0  0  1  0  0  0
   29.8840   10.7043   14.1647 H   0  0  0  0  0  0
   31.8398    8.6541   14.4419 C   0  0  0  0  0  0
   31.7177    9.2919   13.5834 H   0  0  0  0  0  0
   33.1291    8.2148   14.8055 C   0  0  0  0  0  0
   33.9844    8.5276   14.2288 H   0  0  0  0  0  0
   21.9230    5.3877   18.7539 H   0  0  0  0  0  0
  1  2  1  0  0  0
  2 63  1  0  0  0
  2  3  2  0  0  0
  3  4  1  0  0  0
  3  5  1  0  0  0
  5  6  1  0  0  0
  5  7  2  0  0  0
  7  8  1  0  0  0
  7 61  1  0  0  0
  8 59  1  0  0  0
  8  9  1  0  0  0
  8 10  1  0  0  0
 10 11  1  0  0  0
 10 12  1  0  0  0
 12 24  1  0  0  0
 12 13  2  0  0  0
 13 14  1  0  0  0
 13 15  1  0  0  0
 15 16  1  0  0  0
 15 17  2  0  0  0
 17 18  1  0  0  0
 17 22  1  0  0  0
 18 19  1  0  0  0
 18 20  1  0  0  0
 18 21  1  0  0  0
 22 23  1  0  0  0
 22 24  2  0  0  0
 24 25  1  0  0  0
 25 59  1  0  0  0
 25 26  1  0  0  0
 25 27  1  0  0  0
 27 28  1  0  0  0
 28 29  1  0  0  0
 28 30  1  0  0  0
 28 53  1  0  0  0
 30 31  1  0  0  0
 30 32  1  0  0  0
 30 33  1  0  0  0
 33 34  1  0  0  0
 33 38  1  0  0  0
 34 35  1  0  0  0
 34 36  1  0  0  0
 34 37  1  0  0  0
 38 39  2  0  0  0
 38 40  2  0  0  0
 38 41  1  0  0  0
 41 42  1  0  0  0
 41 43  1  0  0  0
 41 44  1  0  0  0
 44 45  1  0  0  0
 44 46  1  0  0  0
 44 47  1  0  0  0
 47 48  1  0  0  0
 47 49  1  0  0  0
 47 50  1  0  0  0
 50 51  1  0  0  0
 50 52  1  0  0  0
 50 65  1  0  0  0
 53 54  1  0  0  0
 53 55  1  0  0  0
 53 56  1  0  0  0
 56 57  1  0  0  0
 56 58  1  0  0  0
 56 59  1  0  0  0
 59 60  1  0  0  0
 61 62  1  0  0  0
 61 63  2  0  0  0
 63 64  1  0  0  0
M  CHG  1  50   1
M  END
> <s_m_source_file>
ligprep_eg5.smi

> <i_m_source_file_index>
15

> <i_lp_mmshare_version>
53161

> <i_f3d_flags>
0

> <s_epik_input>
W2NIXTFbY0hdW2NIXVtjSF1bY0hdYzFbQ0BIXShbTkhdMilbQ0BASF0oW0NASF0zYyhjMjQpW2NIXWMoQyhGKShGKUYpW2NIXVtjSF00KVtDSDJdW0NIMl1bQ0BASF0oTzMpW0NIMl1OKFtDSDNdKVMoPU8pKD1PKVtDSDJdW0NIMl1bQ0gyXVtOSDJd

> <s_epik_cmdline>
J2VwaWtfcHl0aG9uJywgJy1waHQnLCAnMC4wJywgJy1waCcsICc3LjQnLCAnLXRuJywgJzgnLCAnLW1hJywgJzUwMCcsICctaW1hZScsICc8aW5maWxlLm1hZT4nLCAnLW9tYWUnLCAnPG91dGZpbGUubWFlPic=

> <r_lp_tautomer_probability>
1

> <r_epik_Ionization_Penalty>
  0.0036

> <r_epik_Ionization_Penalty_Charging>
  0.0036

> <r_epik_Ionization_Penalty_Neutral>
  0.0000

> <r_epik_State_Penalty>
 -0.0000

> <r_epik_Charging_Adjusted_Penalty>
0.00359995

> <i_epik_Tot_Q>
1

> <i_epik_Tot_abs_Q>
1

> <s_lp_Force_Field>
S-OPLS

> <r_lp_Energy>
43.8047

> <b_lp_Chiralities_Consistent>
1

> <s_lp_Variant>
lig_CHEMBL1084678-1

> <s_i_glide_gridfile>
glide-grid_EG5-3L9H

> <i_i_glide_lignum>
15

> <i_i_glide_rotatable_bonds>
8

> <r_i_docking_score>
-9.0727226745557

> <r_i_glide_ligand_efficiency>
-0.266844784545756

> <r_i_glide_ligand_efficiency_sa>
-0.86447351210763

> <r_i_glide_ligand_efficiency_ln>
-2.00441892006052

> <r_i_glide_gscore>
-9.0727226745557

> <r_i_glide_lipo>
-4.58223689535746

> <r_i_glide_hbond>
-0.153504303299394

> <r_i_glide_metal>
-0

> <r_i_glide_rewards>
-1.08986131754344

> <r_i_glide_evdw>
-50.2855339050293

> <r_i_glide_ecoul>
-8.04208660125732

> <r_i_glide_erotb>
0.574649666667813

> <r_i_glide_esite>
-0.101180139583156

> <r_i_glide_emodel>
-92.3566109530651

> <r_i_glide_energy>
-58.3276205062866

> <r_i_glide_einternal>
3.94855976104736

> <i_i_glide_confnum>
6

> <i_i_glide_posenum>
13

> <r_i_glide_eff_state_penalty>
-0

> <r_i_glide_rmsd>
0.0908595054518094

> <s_glide_core_constrain_type>
snapped_core_restrain

$$$$
lig_CHEMBL1078691
                    3D
 Schrodinger Suite 2022-3.
 52 55  0  0  1  0            999 V2000
   35.1506    6.9961   16.0497 H   0  0  0  0  0  0
   34.3743    7.0705   16.5998 O   0  0  0  0  0  0
   33.2046    7.3830   15.9898 C   0  0  0  0  0  0
   32.0447    6.9520   16.6533 C   0  0  0  0  0  0
   32.1282    6.3166   17.5227 H   0  0  0  0  0  0
   30.7825    7.3762   16.2356 C   0  0  0  0  0  0
   29.9005    7.0576   16.7698 H   0  0  0  0  0  0
   30.6855    8.2450   15.1420 C   0  0  0  0  0  0
   29.3301    8.7627   14.7491 C   0  0  2  0  0  0
   28.5854    8.3128   15.4086 H   0  0  0  0  0  0
   29.0334    8.2926   13.4113 N   0  0  0  0  0  0
   29.1849    7.3041   13.2524 H   0  0  0  0  0  0
   28.0015    8.9176   12.7152 C   0  0  0  0  0  0
   27.6064    8.3593   11.4896 C   0  0  0  0  0  0
   28.0744    7.4593   11.1200 H   0  0  0  0  0  0
   26.6215    8.9895   10.7190 C   0  0  0  0  0  0
   26.3839    8.5619    9.7591 H   0  0  0  0  0  0
   25.9919   10.1712   11.1752 C   0  0  0  0  0  0
   24.9721   10.8852   10.2862 C   0  0  0  0  0  0
   25.7685   11.7006    9.2629 C   0  0  0  0  0  0
   25.1850   12.2615    8.5441 H   0  0  0  0  0  0
   26.4154   11.0282    8.7187 H   0  0  0  0  0  0
   26.3849   12.4375    9.7712 H   0  0  0  0  0  0
   24.0760   11.8274   11.0884 C   0  0  0  0  0  0
   24.6975   12.5884   11.5194 H   0  0  0  0  0  0
   23.5851   11.3401   11.9242 H   0  0  0  0  0  0
   23.3168   12.3089   10.4711 H   0  0  0  0  0  0
   24.0346    9.8607    9.6499 C   0  0  0  0  0  0
   23.1879   10.2624    9.1189 H   0  0  0  0  0  0
   23.5850    9.3883   10.5023 H   0  0  0  0  0  0
   24.5077    9.1197    9.0090 H   0  0  0  0  0  0
   26.3813   10.7069   12.4232 C   0  0  0  0  0  0
   25.9589   11.6155   12.8183 H   0  0  0  0  0  0
   27.3886   10.1014   13.1842 C   0  0  0  0  0  0
   27.8259   10.7731   14.4732 C   0  0  1  0  0  0
   27.8533   11.8496   14.2952 H   0  0  0  0  0  0
   26.8794   10.5164   15.5097 O   0  0  0  0  0  0
   27.1625   11.1892   16.7294 C   0  0  0  0  0  0
   27.1951   12.2677   16.5678 H   0  0  0  0  0  0
   26.3524   10.9946   17.4323 H   0  0  0  0  0  0
   28.4911   10.6767   17.2983 C   0  0  0  0  0  0
   28.7333   11.1954   18.2261 H   0  0  0  0  0  0
   28.4005    9.6180   17.5453 H   0  0  0  0  0  0
   29.6124   10.8762   16.2710 C   0  0  0  0  0  0
   29.8008   11.9464   16.1678 H   0  0  0  0  0  0
   30.5418   10.4474   16.6445 H   0  0  0  0  0  0
   29.2323   10.3026   14.8842 C   0  0  1  0  0  0
   29.9366   10.7258   14.1662 H   0  0  0  0  0  0
   31.8413    8.6247   14.4221 C   0  0  0  0  0  0
   31.7566    9.2763   13.5652 H   0  0  0  0  0  0
   33.1113    8.1894   14.8427 C   0  0  0  0  0  0
   33.9873    8.5296   14.3176 H   0  0  0  0  0  0
  1  2  1  0  0  0
  2  3  1  0  0  0
  3 51  1  0  0  0
  3  4  2  0  0  0
  4  5  1  0  0  0
  4  6  1  0  0  0
  6  7  1  0  0  0
  6  8  2  0  0  0
  8  9  1  0  0  0
  8 49  1  0  0  0
  9 47  1  0  0  0
  9 10  1  0  0  0
  9 11  1  0  0  0
 11 12  1  0  0  0
 11 13  1  0  0  0
 13 34  1  0  0  0
 13 14  2  0  0  0
 14 15  1  0  0  0
 14 16  1  0  0  0
 16 17  1  0  0  0
 16 18  2  0  0  0
 18 19  1  0  0  0
 18 32  1  0  0  0
 19 20  1  0  0  0
 19 24  1  0  0  0
 19 28  1  0  0  0
 20 21  1  0  0  0
 20 22  1  0  0  0
 20 23  1  0  0  0
 24 25  1  0  0  0
 24 26  1  0  0  0
 24 27  1  0  0  0
 28 29  1  0  0  0
 28 30  1  0  0  0
 28 31  1  0  0  0
 32 33  1  0  0  0
 32 34  2  0  0  0
 34 35  1  0  0  0
 35 47  1  0  0  0
 35 36  1  0  0  0
 35 37  1  0  0  0
 37 38  1  0  0  0
 38 39  1  0  0  0
 38 40  1  0  0  0
 38 41  1  0  0  0
 41 42  1  0  0  0
 41 43  1  0  0  0
 41 44  1  0  0  0
 44 45  1  0  0  0
 44 46  1  0  0  0
 44 47  1  0  0  0
 47 48  1  0  0  0
 49 50  1  0  0  0
 49 51  2  0  0  0
 51 52  1  0  0  0
M  END
> <s_m_source_file>
ligprep_eg5.smi

> <i_m_source_file_index>
3

> <i_lp_mmshare_version>
53161

> <i_f3d_flags>
0

> <s_epik_input>
W09IXWMxW2NIXVtjSF1jKFtjSF1bY0hdMSlbQ0BIXShbTkhdMilbQ0BIXShbQ0gyXVtDSDJdW0NIMl1PMylbQ0BIXTNjKGMyNClbY0hdYyhbY0hdW2NIXTQpQyhbQ0gzXSkoW0NIM10pW0NIM10=

> <s_epik_cmdline>
J2VwaWtfcHl0aG9uJywgJy1waHQnLCAnMC4wJywgJy1waCcsICc3LjQnLCAnLXRuJywgJzgnLCAnLW1hJywgJzUwMCcsICctaW1hZScsICc8aW5maWxlLm1hZT4nLCAnLW9tYWUnLCAnPG91dGZpbGUubWFlPic=

> <r_lp_tautomer_probability>
1

> <r_epik_Ionization_Penalty>
  0.0010

> <r_epik_Ionization_Penalty_Charging>
  0.0000

> <r_epik_Ionization_Penalty_Neutral>
  0.0010

> <r_epik_State_Penalty>
 -0.0000

> <r_epik_Charging_Adjusted_Penalty>
0

> <i_epik_Tot_Q>
0

> <i_epik_Tot_abs_Q>
0

> <s_lp_Force_Field>
S-OPLS

> <r_lp_Energy>
34.1252

> <b_lp_Chiralities_Consistent>
1

> <s_lp_Variant>
lig_CHEMBL1078691-1

> <s_i_glide_gridfile>
glide-grid_EG5-3L9H

> <i_i_glide_lignum>
3

> <i_i_glide_rotatable_bonds>
3

> <r_i_docking_score>
-8.97665928402366

> <r_i_glide_ligand_efficiency>
-0.359066371360946

> <r_i_glide_ligand_efficiency_sa>
-1.04991643792862

> <r_i_glide_ligand_efficiency_ln>
-2.12773725908467

> <r_i_glide_gscore>
-8.97665928402366

> <r_i_glide_lipo>
-5.06383813021649

> <r_i_glide_hbond>
-0.431309273878793

> <r_i_glide_metal>
-0

> <r_i_glide_rewards>
-1.28824924773551

> <r_i_glide_evdw>
-34.2456703186035

> <r_i_glide_ecoul>
-6.52582502365112

> <r_i_glide_erotb>
0.49789463728498

> <r_i_glide_esite>
0

> <r_i_glide_emodel>
-51.6245432573516

> <r_i_glide_energy>
-40.7714953422546

> <r_i_glide_einternal>
1.23162662982941

> <i_i_glide_confnum>
2

> <i_i_glide_posenum>
1

> <r_i_glide_eff_state_penalty>
-0

> <r_i_glide_rmsd>
0.0779755402671082

> <s_glide_core_constrain_type>
snapped_core_restrain

$$$$
